55
  
Au        34.913000        40.223400        37.490200
Au        36.132400        37.902300        38.267100
Au        37.427000        35.598500        39.088900
Au        37.287100        39.371700        36.277600
Au        38.633500        35.937400        41.536000
Au        41.272600        41.812500        36.638300
Au        35.377700        42.336000        39.760900
Au        36.031400        42.640500        37.114100
Au        40.208100        35.841000        39.236100
Au        38.548400        41.819100        36.466100
Au        37.335900        40.624800        38.728300
Au        38.358200        45.176300        39.761500
Au        38.036100        44.443000        37.159500
Au        38.609500        37.025300        37.059300
Au        39.844100        39.513000        37.437200
Au        38.565300        38.081300        39.582200
Au        38.042400        42.567400        40.863100
Au        37.398000        39.818100        41.498400
Au        36.279300        44.439800        41.540700
Au        36.222000        37.272400        40.992400
Au        39.817900        38.412200        42.069700
Au        37.465200        37.696200        43.444700
Au        39.170000        41.617600        45.617800
Au        37.116200        40.364600        44.288000
Au        35.126400        39.077200        42.856600
Au        34.977600        39.641200        40.164100
Au        35.879600        44.804900        38.807700
Au        35.664700        41.799700        42.405100
Au        37.751700        43.104400        43.666300
Au        39.523100        38.973100        44.840400
Au        39.833500        43.017800        38.674800
Au        40.980500        42.786400        41.280200
Au        41.381700        37.108200        37.173700
Au        43.521700        43.513800        40.529000
Au        42.597700        39.496100        37.022900
Au        42.421300        43.790500        38.077100
Au        42.390600        41.245900        39.188400
Au        41.123900        45.206600        39.993800
Au        41.466100        38.451200        39.622700
Au        39.474300        41.076300        42.925600
Au        43.660100        37.988300        41.568400
Au        44.113100        39.876400        43.575100
Au        41.500300        36.264400        41.642100
Au        40.694500        43.306300        44.102600
Au        41.680100        40.738200        44.665700
Au        42.011700        38.084500        43.808400
Au        43.198200        42.445300        43.056300
Au        41.973300        40.190100        41.867100
Au        44.477300        40.904200        41.042600
Au        39.785500        40.574000        40.062000
Au        44.167500        38.951000        39.117600
Au        42.177400        44.970300        42.491700
Au        43.053300        36.342800        39.314900
Au        39.873400        36.364900        43.945100
Au        39.354000        44.831100        42.242700
